LTspice 24.0.9 for Windows
Circuit: * C:\Users\ot7309fx\OneDrive - MNSCU\Desktop\Electronics\Labs\Lab3\Draft1.asc
Start Time: Tue Sep 10 17:55:33 2024
solver = Normal
Maximum thread count: 8
tnom = 27
temp = 27
method = modified trap
No AC stimulus found:
     Set the value of a current or voltage source to "AC 1."
     to make it behave as a signal generator for AC analysis.
Direct Newton iteration for .op point succeeded.
Total elapsed time: 0.042 seconds.

