LTspice 24.0.9 for Windows
Circuit: * C:\Users\ot7309fx\OneDrive - MNSCU\Desktop\Electronics\Labs\Lab3\Draft2.asc
Start Time: Tue Sep 10 20:10:23 2024
solver = Normal
Maximum thread count: 8
tnom = 27
temp = 27
method = modified trap
.OP point found by inspection.
Total elapsed time: 0.081 seconds.

